@<TRIPOS>MOLECULE
MOL
   20    19     0     0     0
SMALL
NO_CHARGES

@<TRIPOS>ATOM
      1 C1          0.0000    0.0000    0.0000 C.3       1 <0>         0.0000
      2 C6          0.0000    0.0000    0.0000 C.3       1 <0>         0.0000
      3 C2          0.0000    0.0000    0.0000 C.3       1 <0>         0.0000
      4 C5          0.0000    0.0000    0.0000 C.3       1 <0>         0.0000
      5 C3          0.0000    0.0000    0.0000 C.3       1 <0>         0.0000
      6 C4          0.0000    0.0000    0.0000 C.3       1 <0>         0.0000
      7 H1          0.0000    0.0000    0.0000 H         1 <0>         0.0000
      8 H2          0.0000    0.0000    0.0000 H         1 <0>         0.0000
      9 H3          0.0000    0.0000    0.0000 H         1 <0>         0.0000
     10 H12         0.0000    0.0000    0.0000 H         1 <0>         0.0000
     11 H13         0.0000    0.0000    0.0000 H         1 <0>         0.0000
     12 H14         0.0000    0.0000    0.0000 H         1 <0>         0.0000
     13 H4          0.0000    0.0000    0.0000 H         1 <0>         0.0000
     14 H5          0.0000    0.0000    0.0000 H         1 <0>         0.0000
     15 H10         0.0000    0.0000    0.0000 H         1 <0>         0.0000
     16 H11         0.0000    0.0000    0.0000 H         1 <0>         0.0000
     17 H6          0.0000    0.0000    0.0000 H         1 <0>         0.0000
     18 H7          0.0000    0.0000    0.0000 H         1 <0>         0.0000
     19 H8          0.0000    0.0000    0.0000 H         1 <0>         0.0000
     20 H9          0.0000    0.0000    0.0000 H         1 <0>         0.0000
@<TRIPOS>BOND
     1    1    3 
     2    2    4 
     3    3    5 
     4    4    6 
     5    5    6 
     6    1    7 
     7    1    8 
     8    1    9 
     9    2   10 
    10    2   11 
    11    2   12 
    12    3   13 
    13    3   14 
    14    4   15 
    15    4   16 
    16    5   17 
    17    5   18 
    18    6   19 
    19    6   20 
