@<TRIPOS>MOLECULE
oldmol
   49    52     0     0     0
SMALL
NO_CHARGES

@<TRIPOS>ATOM
      1 C1         17.6350   14.2970    9.7220 C.ar      1 GST1        0.0000
      2 C2         18.2850   13.2220    9.1370 C.ar      1 GST1        0.0000
      3 C3         19.6730   17.2770   11.7000 C.ar      1 GST1        0.0000
      4 C4         20.3960   14.0210   10.0050 C.ar      1 GST1        0.0000
      5 C5         18.3300   17.3390   11.4470 C.ar      1 GST1        0.0000
      6 C6         19.7430   15.1710   10.5300 C.ar      1 GST1        0.0000
      7 C7         20.4890   16.2320   11.2150 C.ar      1 GST1        0.0000
      8 C8         18.3400   15.3120   10.3930 C.ar      1 GST1        0.0000
      9 C9         19.6280   13.0880    9.3180 C.ar      1 GST1        0.0000
     10 C10        24.6410   18.4810   16.3010 C.2       1 GST1        0.0000
     11 C11        23.5910   17.9500   15.6730 C.2       1 GST1        0.0000
     12 C12        24.0150   14.4580   14.0500 C.3       1 GST1        0.0000
     13 C13        23.8120   16.7050   13.0750 C.3       1 GST1        0.0000
     14 C14        22.6440   14.1440   13.6740 C.3       1 GST1        0.0000
     15 C15        21.9170   15.9550   15.2570 C.3       1 GST1        0.0000
     16 C16        23.4170   16.4190   15.4910 C.3       1 GST1        0.0000
     17 C17        24.2830   15.9170   14.3070 C.3       1 GST1        0.0000
     18 C18        22.2780   16.3900   12.8460 C.3       1 GST1        0.0000
     19 C19        21.5330   11.6480    8.8440 C.3       1 GST1        0.0000
     20 C20        22.0140   16.4260   11.3290 C.3       1 GST1        0.0000
     21 N1         17.6790   16.3970   10.7890 N.ar      1 GST1        0.0000
     22 N2         21.7540   15.3480   13.7940 N.4       1 GST1        0.0000
     23 O1         22.4550   17.6310   10.8210 O.3       1 GST1        0.0000
     24 O2         20.1650   12.0220    8.6990 O.3       1 GST1        0.0000
     25 H1         16.5910   14.5100    9.5140 H         1 GST1        0.0000
     26 H2         17.7240   12.4670    8.5930 H         1 GST1        0.0000
     27 H3         20.1610   18.1470   12.1280 H         1 GST1        0.0000
     28 H4         21.4810   13.9660   10.0170 H         1 GST1        0.0000
     29 H5         17.6970   18.1840   11.7130 H         1 GST1        0.0000
     30 H6         24.7230   19.5600   16.4110 H         1 GST1        0.0000
     31 H7         25.4770   17.9060   16.6950 H         1 GST1        0.0000
     32 H8         22.7660   18.5670   15.3220 H         1 GST1        0.0000
     33 H9         24.1570   13.9170   14.9930 H         1 GST1        0.0000
     34 H10        24.7430   14.0750   13.3250 H         1 GST1        0.0000
     35 H11        23.8790   17.7930   13.2000 H         1 GST1        0.0000
     36 H12        24.4560   16.4570   12.2220 H         1 GST1        0.0000
     37 H13        22.7010   13.8800   12.6160 H         1 GST1        0.0000
     38 H14        22.3120   13.2760   14.2460 H         1 GST1        0.0000
     39 H15        21.7300   15.2580   16.0740 H         1 GST1        0.0000
     40 H16        21.2660   16.8190   15.3950 H         1 GST1        0.0000
     41 H17        23.6640   15.9490   16.4510 H         1 GST1        0.0000
     42 H18        25.3600   16.1050   14.3970 H         1 GST1        0.0000
     43 H19        21.8380   17.3330   13.1730 H         1 GST1        0.0000
     44 H20        21.6470   10.7350    8.2470 H         1 GST1        0.0000
     45 H21        21.7030   11.3990    9.8990 H         1 GST1        0.0000
     46 H22        22.1860   12.4470    8.4720 H         1 GST1        0.0000
     47 H23        22.5780   15.5750   10.9250 H         1 GST1        0.0000
     48 H24        20.7940   15.0600   13.5570 H         1 GST1        0.0000
     49 H25        21.6700   17.9300   10.3300 H         1 GST1        0.0000
@<TRIPOS>BOND
     1   19   44 1
     2   19   46 1
     3    2   26 1
     4   19   24 1
     5    9   24 1
     6   19   45 1
     7    2    9 ar
     8    1    2 ar
     9    4    9 ar
    10    1   25 1
    11    1    8 ar
    12    4   28 1
    13    4    6 ar
    14   23   49 1
    15    6    8 ar
    16    8   21 ar
    17    6    7 ar
    18    5   21 ar
    19   20   23 1
    20   20   47 1
    21    7   20 1
    22    3    7 ar
    23   18   20 1
    24    3    5 ar
    25    5   29 1
    26    3   27 1
    27   13   36 1
    28   14   37 1
    29   13   18 1
    30   18   43 1
    31   18   22 1
    32   13   35 1
    33   13   17 1
    34   12   34 1
    35   22   48 1
    36   14   22 1
    37   12   14 1
    38   14   38 1
    39   15   22 1
    40   12   17 1
    41   12   33 1
    42   17   42 1
    43   16   17 1
    44   15   40 1
    45   15   16 1
    46   15   39 1
    47   11   32 1
    48   11   16 1
    49   16   41 1
    50   10   11 2
    51   10   30 1
    52   10   31 1
@<TRIPOS>MOLECULE
newmol
   49    52     0     0     0
SMALL
NO_CHARGES

@<TRIPOS>ATOM
      1 C1          8.6766    1.0340    5.8898 C.ar      1 <0>         0.0000
      2 C2          7.8306    1.8858    6.6043 C.ar      1 <0>         0.0000
      3 C3          8.1429   -0.0064    5.1394 C.ar      1 <0>         0.0000
      4 C4          3.7084    1.3637    6.5285 C.ar      1 <0>         0.0000
      5 C5          4.3232    2.3696    7.2461 C.ar      1 <0>         0.0000
      6 C6          5.9131    0.6648    5.8244 C.ar      1 <0>         0.0000
      7 C7          4.5215    0.5006    5.8081 C.ar      1 <0>         0.0000
      8 C8          6.4480    1.7233    6.5883 C.ar      1 <0>         0.0000
      9 C9          6.7639   -0.1921    5.1056 C.ar      1 <0>         0.0000
     10 C10         0.7957    0.5150   -1.0311 C.2       1 <0>         0.0000
     11 C11         1.0459   -0.2878    0.0088 C.2       1 <0>         0.0000
     12 C12         0.7973   -1.3475    2.9242 C.3       1 <0>         0.0000
     13 C13         2.0894    0.6594    3.6026 C.3       1 <0>         0.0000
     14 C14         2.0604   -2.1994    3.0375 C.3       1 <0>         0.0000
     15 C15         3.1450   -0.8439    1.2673 C.3       1 <0>         0.0000
     16 C16         1.9220    0.0873    1.1669 C.3       1 <0>         0.0000
     17 C17         1.1547    0.0938    2.5143 C.3       1 <0>         0.0000
     18 C18         3.4048   -0.1334    3.6402 C.3       1 <0>         0.0000
     19 C19         7.2899   -2.0185    3.6761 C.3       1 <0>         0.0000
     20 C20         3.8098   -0.5850    5.0367 C.3       1 <0>         0.0000
     21 N1          5.6615    2.5624    7.2884 N.ar      1 <0>         0.0000
     22 N2          3.2582   -1.3300    2.7058 N.4       1 <0>         0.0000
     23 O1          2.6380   -0.9559    5.7601 O.3       1 <0>         0.0000
     24 O2          6.3095   -1.2340    4.3500 O.3       1 <0>         0.0000
     25 H1          9.7514    1.1872    5.9212 H         1 <0>         0.0000
     26 H2          8.2739    2.6936    7.1838 H         1 <0>         0.0000
     27 H3          8.8051   -0.6656    4.5852 H         1 <0>         0.0000
     28 H4          2.6287    1.2612    6.5367 H         1 <0>         0.0000
     29 H5          3.7388    3.0737    7.8294 H         1 <0>         0.0000
     30 H6          0.1519    0.1835   -1.8384 H         1 <0>         0.0000
     31 H7          1.2240    1.5092   -1.0966 H         1 <0>         0.0000
     32 H8          0.5935   -1.2753    0.0289 H         1 <0>         0.0000
     33 H9          0.1070   -1.8001    2.2029 H         1 <0>         0.0000
     34 H10         0.2699   -1.3462    3.8861 H         1 <0>         0.0000
     35 H11         2.3079    1.7146    3.3968 H         1 <0>         0.0000
     36 H12         1.5846    0.6366    4.5764 H         1 <0>         0.0000
     37 H13         2.2020   -2.6085    4.0416 H         1 <0>         0.0000
     38 H14         2.0558   -3.0327    2.3265 H         1 <0>         0.0000
     39 H15         3.0835   -1.7351    0.6324 H         1 <0>         0.0000
     40 H16         4.0764   -0.3169    1.0321 H         1 <0>         0.0000
     41 H17         2.2797    1.1058    0.9655 H         1 <0>         0.0000
     42 H18         0.2467    0.7046    2.4505 H         1 <0>         0.0000
     43 H19         4.2210    0.4717    3.2263 H         1 <0>         0.0000
     44 H20         6.7965   -2.8133    3.1113 H         1 <0>         0.0000
     45 H21         7.9783   -2.4497    4.4072 H         1 <0>         0.0000
     46 H22         7.8465   -1.3775    2.9883 H         1 <0>         0.0000
     47 H23         4.4352   -1.4813    4.9498 H         1 <0>         0.0000
     48 H24         4.1068   -1.9076    2.7769 H         1 <0>         0.0000
     49 H25         2.9379   -1.2744    6.6252 H         1 <0>         0.0000
@<TRIPOS>BOND
     1    1    2 ar
     2    1    3 ar
     3    2    8 ar
     4    3    9 ar
     5    4    5 ar
     6    4    7 ar
     7    5   21 ar
     8    6    7 ar
     9    6    8 ar
    10    6    9 ar
    11    7   20 1
    12    8   21 ar
    13    9   24 1
    14   10   11 2
    15   11   16 1
    16   12   14 1
    17   12   17 1
    18   13   17 1
    19   13   18 1
    20   14   22 1
    21   15   16 1
    22   15   22 1
    23   16   17 1
    24   18   20 1
    25   18   22 1
    26   19   24 1
    27   20   23 1
    28    1   25 1
    29    2   26 1
    30    3   27 1
    31    4   28 1
    32    5   29 1
    33   10   30 1
    34   10   31 1
    35   11   32 1
    36   12   33 1
    37   12   34 1
    38   13   35 1
    39   13   36 1
    40   14   37 1
    41   14   38 1
    42   15   39 1
    43   15   40 1
    44   16   41 1
    45   17   42 1
    46   18   43 1
    47   19   44 1
    48   19   45 1
    49   19   46 1
    50   20   47 1
    51   22   48 1
    52   23   49 1
